Circuit: * C:\Users\vamsi\_IMPERIAL_\Year 1\Advanced Electronics\Project\Analogue_Computer_1.asc

Per .tran options, skipping operating point for transient analysis.

Date: Fri Apr 16 14:27:54 2021
Total elapsed time: 0.157 seconds.

tnom = 27
temp = 27
method = modified trap
totiter = 9471
traniter = 9471
tranpoints = 2390
accept = 2029
rejected = 361
matrix size = 32
fillins = 6
solver = Normal
Thread vector: 15.3/6.4[4] 2.5/1.9[4] 2.2/1.3[4] 0.1/0.9[1]  2592/500
Matrix Compiler1: 2.46 KB object code size  0.5/0.3/[0.1]
Matrix Compiler2: 3.91 KB object code size  0.4/0.4/[0.2]

