Circuit: * C:\Users\vamsi\_IMPERIAL_\Year 1\Advanced Electronics\Project\Analogue_Computer_2.asc

Early termination of direct N-R iteration.
Direct Newton iteration failed to find .op point.  (Use ".option noopiter" to skip.)
Starting Gmin stepping
Gmin = 10
Gmin = 1.07374
vernier = 0.5
vernier = 0.25
vernier = 0.125
vernier = 0.0625
Gmin = 1.15289
vernier = 0.03125
Gmin = 1.0585
vernier = 0.015625
vernier = 0.0208333
vernier = 0.0104167
Gmin = 1.04074
vernier = 0.00520833
vernier = 0.00694444
vernier = 0.00347222
Gmin = 1.03131
vernier = 0.00462963
vernier = 0.00231481
Gmin = 1.02447
vernier = 0.00308642
vernier = 0.00154321
Gmin = 1.01954
vernier = 0.00205761
vernier = 0.00102881
Gmin = 1.01627
vernier = 0.00137174
vernier = 0.00068587
Gmin = 1.01375
vernier = 0.000914493
Gmin = 1.01172
vernier = 0.00121932
vernier = 0.000609662
vernier = 0.000812882
Gmin = 1.01031
vernier = 0.000406441
vernier = 0.000541921
Gmin = 1.00946
vernier = 0.000722562
vernier = 0.000541921
vernier = 0.000406441
Gmin = 1.00864
vernier = 0.000541921
vernier = 0.000406441
Gmin = 1.00782
vernier = 0.000541921
vernier = 0.000406441
Gmin = 0
Gmin stepping failed

Starting source stepping with srcstepmethod=0
Source Step = 3.0303%
Source Step = 12.1212%
Source Step = 19.697%
Source Step = 27.2727%
Source Step = 34.8485%
Source Step = 42.4242%
vernier = 0.375
Source Step = 52.6515%
Source Step = 64.0152%
Source Step = 75.3788%
Source Step = 86.7424%
Source Step = 98.1061%
Source stepping succeeded in finding the operating point.


Date: Fri May 28 12:01:55 2021
Total elapsed time: 1.080 seconds.

tnom = 27
temp = 27
method = modified trap
totiter = 13385
traniter = 2961
tranpoints = 1276
accept = 1221
rejected = 55
matrix size = 45
fillins = 82
solver = Normal
Thread vector: 19.9/7.5[6] 4.1/3.2[2] 5.7/3.4[6] 0.2/1.4[1]  2592/500
Matrix Compiler1: 7.70 KB object code size  1.6/0.7/[0.3]
Matrix Compiler2: 6.87 KB object code size  0.7/0.6/[0.4]

