Circuit: * C:\Users\vamsi\_IMPERIAL_\Year 1\Advanced Electronics\Project\Draft2.asc

Direct Newton iteration for .op point succeeded.

Date: Sat May 08 16:04:44 2021
Total elapsed time: 0.066 seconds.

tnom = 27
temp = 27
method = modified trap
totiter = 2392
traniter = 2378
tranpoints = 1059
accept = 1051
rejected = 8
matrix size = 11
fillins = 2
solver = Normal
Matrix Compiler1: 552 bytes object code size  0.2/0.1/[0.1]
Matrix Compiler2: 1.01 KB object code size  0.1/0.2/[0.1]

