Circuit: * C:\Users\vamsi\_IMPERIAL_\Year 1\Advanced Electronics\Project\Integrator_Amplifier.asc

Per .tran options, skipping operating point for transient analysis.

Date: Wed Apr 07 12:13:22 2021
Total elapsed time: 0.218 seconds.

tnom = 27
temp = 27
method = modified trap
totiter = 12974
traniter = 12974
tranpoints = 6481
accept = 4460
rejected = 2021
matrix size = 16
fillins = 2
solver = Normal
Thread vector: 4.3/3.5[2] 1.1/2.5[1] 0.8/3.0[1] 0.1/0.9[1]  2592/500
Matrix Compiler1: 964 bytes object code size  0.2/0.1/[0.1]
Matrix Compiler2: 1.69 KB object code size  0.2/0.2/[0.1]

